Measured thermophysical data. Physical properties of aqueous glycerol solutions
Source: 10.1016/j.petrol.2012.09.003
Compound 1: water, , InChI=1S/H2O/h1H2

System: water
Property: Viscosity, Pa*s
Temperature, K	Mole fraction of water	Viscosity, Pa*s	uncertainty
264.87	1.0	0.0024551	NG
266.503	1.0	0.002296	NG
268.616	1.0	0.0021137	NG
272.042	1.0	0.001863	NG
273.15	1.0	0.0017919	NG
278.15	1.0	0.001519	NG
283.15	1.0	0.0013067	NG
288.15	1.0	0.0011381	NG
293.15	1.0	0.001002	NG
298.15	1.0	0.0008902	NG
303.15	1.0	0.00079723	NG
308.15	1.0	0.00071911	NG
313.15	1.0	0.0006527	NG
