Measured thermophysical data. Design of Improved Deep Eutectic Solvents Using Hole Theory
Source: 10.1002/cphc.200500489
Compound 1: water, , InChI=1S/H2O/h1H2
Compound 2: choline choloride, , InChI=1S/C5H14NO.ClH/c1-6(2,3)4-5-7;/h7H,4-5H2,1-3H3;1H/q+1;/p-1
Compound 3: urea, , InChI=1S/CH4N2O/c2-1(3)4/h(H4,2,3,4)

System: water + choline choloride + urea
Property: Viscosity, Pa*s
Temperature, K	Mole fraction of water	Mole fraction of choline choloride	Mole fraction of urea	Viscosity, Pa*s	uncertainty
313.15	0.0	0.33	0.67	0.169	NG
318.026111	0.0	0.33	0.67	0.122103044	NG
315.555369	0.0	0.33	0.67	0.144945703	NG
313.07244	0.0	0.33	0.67	0.172061696	NG
310.529327	0.0	0.33	0.67	0.204250466	NG
308.075872	0.0	0.33	0.67	0.245248957	NG
305.565069	0.0	0.33	0.67	0.297862986	NG
303.00065	0.0	0.33	0.67	0.365924228	NG
