Measured thermophysical data. Molecular motion and ion diffusion in choline chloride based deep eutectic solvents studied by 1H pulsed field gradient NMR spectroscopy
Source: 10.1039/c1cp22554e
Compound 1: water, , InChI=1S/H2O/h1H2
Compound 2: choline choloride, , InChI=1S/C5H14NO.ClH/c1-6(2,3)4-5-7;/h7H,4-5H2,1-3H3;1H/q+1;/p-1
Compound 3: urea, , InChI=1S/CH4N2O/c2-1(3)4/h(H4,2,3,4)

System: water + choline choloride + urea
Property: Viscosity, Pa*s
Temperature, K	Mole fraction of water	Mole fraction of choline choloride	Mole fraction of urea	Viscosity, Pa*s	uncertainty
298	0.0	0.33	0.67	0.75	0.015
303	0.0	0.33	0.67	0.449	0.00898
308	0.0	0.33	0.67	0.33	0.0066
313	0.0	0.33	0.67	0.231	0.00462
318	0.0	0.33	0.67	0.161	0.00322
323	0.0	0.33	0.67	0.119	0.00238
328	0.0	0.33	0.67	0.095	0.0019
