Measured thermophysical data. Glycerol eutectics as sustainable solvent systems
Source: 10.1039/c0gc00395f
Compound 1: water, , InChI=1S/H2O/h1H2
Compound 2: choline choloride, , InChI=1S/C5H14NO.ClH/c1-6(2,3)4-5-7;/h7H,4-5H2,1-3H3;1H/q+1;/p-1
Compound 3: glycerol, , InChI=1S/C3H8O3/c4-1-3(6)2-5/h3-6H,1-2H2

System: water + choline choloride + glycerol
Property: Viscosity, Pa*s
Temperature, K	Mole fraction of water	Mole fraction of choline choloride	Mole fraction of glycerol	Viscosity, Pa*s	uncertainty
293.15	0.0	0.05	0.95	0.998	0.02994
298.15	0.0	0.05	0.95	0.654	0.01962
303.15	0.0	0.05	0.95	0.45	0.0135
308.15	0.0	0.05	0.95	0.314	0.00942
313.15	0.0	0.05	0.95	0.222	0.00666
318.15	0.0	0.05	0.95	0.163	0.00489
323.15	0.0	0.05	0.95	0.12	0.0036
328.15	0.0	0.05	0.95	0.09	0.0027
293.15	0.0	0.1	0.9	0.79	0.0237
298.15	0.0	0.1	0.9	0.503	0.01509
303.15	0.0	0.1	0.9	0.349	0.01047
308.15	0.0	0.1	0.9	0.247	0.00741
313.15	0.0	0.1	0.9	0.18	0.0054
318.15	0.0	0.1	0.9	0.132	0.00396
323.15	0.0	0.1	0.9	0.098	0.00294
328.15	0.0	0.1	0.9	0.074	0.00222
293.15	0.0	0.15	0.85	0.548	0.01644
298.15	0.0	0.15	0.85	0.38	0.0114
303.15	0.0	0.15	0.85	0.27	0.0081
308.15	0.0	0.15	0.85	0.194	0.00582
313.15	0.0	0.15	0.85	0.14	0.0042
318.15	0.0	0.15	0.85	0.107	0.00321
323.15	0.0	0.15	0.85	0.08	0.0024
328.15	0.0	0.15	0.85	0.06	0.0018
293.15	0.0	0.2	0.8	0.503	0.01509
298.15	0.0	0.2	0.8	0.35	0.0105
303.15	0.0	0.2	0.8	0.246	0.00738
308.15	0.0	0.2	0.8	0.178	0.00534
313.15	0.0	0.2	0.8	0.132	0.00396
318.15	0.0	0.2	0.8	0.098	0.00294
323.15	0.0	0.2	0.8	0.086	0.00258
328.15	0.0	0.2	0.8	0.057	0.00171
293.15	0.0	0.25	0.75	0.45	0.0135
298.15	0.0	0.25	0.75	0.32	0.0096
303.15	0.0	0.25	0.75	0.229	0.00687
308.15	0.0	0.25	0.75	0.169	0.00507
313.15	0.0	0.25	0.75	0.126	0.00378
318.15	0.0	0.25	0.75	0.095	0.00285
323.15	0.0	0.25	0.75	0.073	0.00219
328.15	0.0	0.25	0.75	0.058	0.00174
293.15	0.0	0.3	0.7	0.401	0.01203
298.15	0.0	0.3	0.7	0.295	0.00885
303.15	0.0	0.3	0.7	0.213	0.00639
308.15	0.0	0.3	0.7	0.16	0.0048
313.15	0.0	0.3	0.7	0.12	0.0036
318.15	0.0	0.3	0.7	0.091	0.00273
323.15	0.0	0.3	0.7	0.071	0.00213
328.15	0.0	0.3	0.7	0.055	0.00165
293.15	0.0	0.33	0.67	0.376	0.01128
298.15	0.0	0.33	0.67	0.259	0.00777
303.15	0.0	0.33	0.67	0.188	0.00564
308.15	0.0	0.33	0.67	0.14	0.0042
313.15	0.0	0.33	0.67	0.104	0.00312
318.15	0.0	0.33	0.67	0.082	0.00246
323.15	0.0	0.33	0.67	0.064	0.00192
328.15	0.0	0.33	0.67	0.052	0.00156
