Measured thermophysical data. Molecular and ionic diffusion in aqueous â€“ deep eutectic solvent mixtures: probing inter-molecular interactions using PFG NMR
Source: 10.1039/c5cp01493j
Compound 1: water, , InChI=1S/H2O/h1H2
Compound 2: choline choloride, , InChI=1S/C5H14NO.ClH/c1-6(2,3)4-5-7;/h7H,4-5H2,1-3H3;1H/q+1;/p-1
Compound 3: glycerol, , InChI=1S/C3H8O3/c4-1-3(6)2-5/h3-6H,1-2H2

System: water + choline choloride + glycerol
Property: Viscosity, Pa*s
Temperature, K	Mole fraction of water	Mole fraction of choline choloride	Mole fraction of glycerol	Viscosity, Pa*s	uncertainty
293.15	0.56	0.15	0.29	0.06487	NG
293.15	0.47	0.18	0.35	0.086707	NG
293.15	0.36	0.21	0.43	0.129312	NG
293.15	0.29	0.24	0.47	0.170685	NG
293.15	0.21	0.26	0.53	0.213443	NG
293.15	0.12	0.29	0.59	0.311565	NG
293.15	0.05	0.32	0.63	0.314245	NG
293.15	0.02	0.33	0.65	0.330824	NG
