Measured thermophysical data. Shear viscosity of methanol and methanol + water mixtures under pressure
Source: 10.1007/BF00508889
Compound 1: water, , InChI=1S/H2O/h1H2
Compound 2: methanol, , InChI=1S/CH4O/c1-2/h2H,1H3

System: water + methanol
Property: Viscosity, Pa*s
Temperature, K	Mole fraction of water	Mole fraction of methanol	Viscosity, Pa*s	uncertainty
278.15	0.0	1.0	0.000737	NG
278.15	0.19	0.81	0.001199	NG
278.15	0.42	0.58	0.001973	NG
278.15	0.61	0.39	0.002719	NG
278.15	0.72	0.28	0.003039	NG
278.15	0.8	0.2	0.003035	NG
278.15	0.9	0.1	0.002508	NG
278.15	0.95	0.05	0.002046	NG
278.15	1.0	0.0	0.00152	NG
298.15	0.2	0.8	0.000827	NG
298.15	0.35	0.65	0.001061	NG
298.15	0.5	0.5	0.001314	NG
298.15	0.64	0.36	0.001524	NG
298.15	0.75	0.25	0.001577	NG
298.15	0.91	0.09	0.001282	NG
