Measured thermophysical data. The NADES glyceline as a potential Green Solvent: A comprehensive study of its thermophysical properties and effect of water inclusion
Source: J. Chem. Thermodyn., 2019, 10.1016/j.jct.2018.07.031
Compound 1: choline chloride, C5H14ClNO, InChI=1S/C5H14NO.ClH/c1-6(2,3)4-5-7;/h7H,4-5H2,1-3H3;1H/q+1;/p-1
Compound 2: glycerol, C3H8O3, InChI=1S/C3H8O3/c4-1-3(6)2-5/h3-6H,1-2H2
Compound 3: water, H2O, InChI=1S/H2O/h1H2

System: choline chloride + glycerol; phases: Liquid
Fixed: Pressure, kPa = 100
Fixed: Mole fraction of choline chloride = 0.333
Property: Mass density, kg/m3 (Liquid); method: Vibrating tube method
Temperature, K	Mass density, kg/m3	uncertainty
278.15	1207.05	2.74
280.65	1205.6	2.73
283.15	1204.2	2.73
285.65	1202.8	2.72
288.15	1201.4	2.72
290.65	1200	2.72
293.15	1198.55	2.71
295.65	1197.15	2.71
298.15	1195.75	2.7
300.65	1194.3	2.7
303.15	1192.9	2.7
305.65	1191.5	2.69
308.15	1190.15	2.69
310.65	1188.75	2.68
313.15	1187.4	2.68
315.65	1186	2.68
318.15	1184.65	2.67
320.65	1183.25	2.67
323.15	1181.9	2.66
325.65	1180.5	2.66
328.15	1179.1	2.66
330.65	1177.7	2.65
333.15	1176.35	2.65
335.65	1174.95	2.65
338.15	1173.55	2.64

System: choline chloride + glycerol; phases: Liquid
Fixed: Pressure, kPa = 100
Fixed: Mole fraction of choline chloride = 0.333
Fixed: Frequency, MHz = 3
Property: Speed of sound, m/s (Liquid); method: Single path-length method
Temperature, K	Speed of sound, m/s	uncertainty
278.15	2049.58	2.06
280.65	2042.81	2.06
283.15	2036.25	2.06
285.65	2029.92	2.06
288.15	2023.98	2.06
290.65	2018.22	2.06
293.15	2012.56	2.06
295.65	2006.9	2.06
298.15	2001.29	2.06
300.65	1995.75	2.06
303.15	1990.23	2.06
305.65	1984.72	2.06
308.15	1979.24	2.06
310.65	1973.77	2.06
313.15	1968.3	2.06
315.65	1962.85	2.06
318.15	1957.38	2.06
320.65	1951.84	2.06
323.15	1946.29	2.06
325.65	1940.73	2.06
328.15	1935.15	2.06
330.65	1929.61	2.06
333.15	1924.08	2.06
335.65	1918.48	2.06
338.15	1912.86	2.06

System: choline chloride + glycerol; phases: Liquid
Fixed: Pressure, kPa = 100
Fixed: Mole fraction of choline chloride = 0.333
Property: Refractive index (Na D-line) (Liquid); method: Standard Abbe refractometry
Temperature, K	Refractive index (Na D-line)	uncertainty
283.15	1.48809	0.00051
285.65	1.4875	0.00051
288.15	1.48698	0.00051
290.65	1.48632	0.00051
293.15	1.48574	0.00051
295.65	1.48514	0.00051
298.15	1.48455	0.00051
300.65	1.48396	0.00051
303.15	1.48337	0.00051
305.65	1.48278	0.00051
308.15	1.48218	0.00051
310.65	1.48159	0.00051
313.15	1.48098	0.00051
315.65	1.4804	0.00051
318.15	1.4798	0.00051
320.65	1.47921	0.00051
323.15	1.4786	0.00051
325.65	1.47801	0.00051
328.15	1.47741	0.00051
330.65	1.47681	0.00051
333.15	1.47622	0.00051
335.65	1.47564	0.00051
338.15	1.47504	0.00051

System: choline chloride + glycerol; phases: Liquid, Air at 1 atmosphere
Fixed: Mole fraction of choline chloride = 0.333
Property: Surface tension liquid-gas, N/m (Liquid); method: Drop volume
Temperature, K	Surface tension liquid-gas, N/m	uncertainty
278.15	0.06801	0.00075
280.65	0.0679	0.00075
283.15	0.06777	0.00075
285.65	0.06765	0.00074
288.15	0.0675	0.00074
290.65	0.06734	0.00074
293.15	0.0672	0.00074
295.65	0.0671	0.00074
298.15	0.06695	0.00074
300.65	0.06681	0.00074
303.15	0.0667	0.00074
305.65	0.06657	0.00073
308.15	0.06643	0.00073
310.65	0.06631	0.00073
313.15	0.06618	0.00073
315.65	0.06605	0.00073
318.15	0.06593	0.00073
320.65	0.06574	0.00073
323.15	0.06562	0.00072
325.65	0.06548	0.00072
328.15	0.06538	0.00072
330.65	0.06523	0.00072
333.15	0.0651	0.00072
335.65	0.06497	0.00072
338.15	0.06484	0.00072

System: choline chloride + glycerol; phases: Liquid
Fixed: Pressure, kPa = 100
Fixed: Mole fraction of choline chloride = 0.333
Property: Molar heat capacity at constant pressure, J/K/mol (Liquid); method: DSC
Temperature, K	Molar heat capacity at constant pressure, J/K/mol	uncertainty
278.15	211.5	8.2
280.65	212.5	8.2
283.15	213.5	8.3
285.65	214.5	8.3
288.15	215	8.3
290.65	216	8.4
293.15	217	8.4
295.65	217.5	8.4
298.15	218.5	8.5
300.65	219	8.5
303.15	220	8.5
305.65	221	8.6
308.15	221.5	8.6
310.65	222.5	8.6
313.15	223.5	8.7
315.65	224	8.7
318.15	225	8.7
320.65	226	8.8
323.15	227	8.8
325.65	228	8.8
328.15	228.5	8.8
330.65	229	8.9
333.15	230	8.9
335.65	231	8.9
338.15	232	9

System: choline chloride + glycerol; phases: Liquid
Fixed: Pressure, kPa = 100
Fixed: Mole fraction of choline chloride = 0.333
Fixed: Frequency, MHz = 0.002
Property: Electrical conductivity, S/m (Liquid); method: Alternating current cell with electrodes
Temperature, K	Electrical conductivity, S/m	uncertainty
278.15	0.026	0.0005
280.65	0.032	0.0006
283.15	0.0406	0.0008
285.65	0.0491	0.001
288.15	0.0587	0.0012
290.65	0.0703	0.0014
293.15	0.0839	0.0017
295.65	0.0992	0.002
298.15	0.117	0.002
300.65	0.136	0.003
303.15	0.158	0.003
305.65	0.182	0.004
308.15	0.21	0.004
310.65	0.24	0.005
313.15	0.276	0.006
315.65	0.314	0.006
318.15	0.352	0.007
320.65	0.394	0.008
323.15	0.439	0.009
325.65	0.487	0.01
328.15	0.544	0.011
330.65	0.603	0.012
333.15	0.662	0.013
335.65	0.729	0.015
338.15	0.801	0.016

System: choline chloride + glycerol; phases: Liquid
Fixed: Pressure, kPa = 100
Fixed: Mole fraction of choline chloride = 0.333
Property: Viscosity, Pa*s (Liquid); method: Capillary tube (Ostwald; Ubbelohde) method
Temperature, K	Viscosity, Pa*s	uncertainty
278.15	1.511	0.088
280.65	1.211	0.066
283.15	0.9824	0.0503
285.65	0.8015	0.0387
288.15	0.6584	0.03
290.65	0.5437	0.0234
293.15	0.4526	0.0184
295.65	0.3785	0.0146
298.15	0.3197	0.0116
300.65	0.2714	0.0093
303.15	0.2321	0.0076
305.65	0.199	0.0062
308.15	0.1716	0.0051
310.65	0.149	0.0042
313.15	0.13	0.0035
315.65	0.1138	0.0029
318.15	0.1	0.0025
320.65	0.08843	0.00213
323.15	0.07839	0.00184
325.65	0.06946	0.0016
328.15	0.06206	0.0014
330.65	0.05563	0.00125
333.15	0.05005	0.00112
335.65	0.04519	0.00102
338.15	0.04094	0.00093

System: choline chloride + glycerol + water; phases: Liquid
Fixed: Pressure, kPa = 100
Fixed: Mole fraction of choline chloride = 0.249
Fixed: Mole fraction of glycerol = 0.496
Property: Mass density, kg/m3 (Liquid); method: Vibrating tube method
Temperature, K	Mass density, kg/m3	uncertainty
278.15	1193.6	3.41
280.65	1192.2	3.41
283.15	1190.8	3.41
285.65	1189.4	3.4
288.15	1188	3.4
290.65	1186.6	3.4
293.15	1185.2	3.39
295.65	1183.85	3.39
298.15	1182.5	3.38
300.65	1181.15	3.38
303.15	1179.8	3.38
305.65	1178.45	3.37
308.15	1177.05	3.37
310.65	1175.7	3.36
313.15	1174.3	3.36
315.65	1172.95	3.36
318.15	1171.55	3.35
320.65	1170.2	3.35
323.15	1168.8	3.35
325.65	1167.4	3.34
328.15	1166.05	3.34
330.65	1164.65	3.33
333.15	1163.25	3.33
335.65	1161.9	3.33
338.15	1160.55	3.32

System: choline chloride + glycerol + water; phases: Liquid
Fixed: Pressure, kPa = 100
Fixed: Mole fraction of choline chloride = 0.249
Fixed: Mole fraction of glycerol = 0.496
Fixed: Frequency, MHz = 3
Property: Speed of sound, m/s (Liquid); method: Single path-length method
Temperature, K	Speed of sound, m/s	uncertainty
278.15	2047.31	0.56
280.65	2041.95	0.56
283.15	2036.65	0.56
285.65	2031.43	0.56
288.15	2026.29	0.56
290.65	2021.21	0.56
293.15	2016.2	0.56
295.65	2011.14	0.56
298.15	2006.05	0.56
300.65	2001.01	0.56
303.15	1995.95	0.56
305.65	1990.88	0.56
308.15	1985.83	0.56
310.65	1980.76	0.56
313.15	1975.66	0.56
315.65	1970.54	0.56
318.15	1965.43	0.56
320.65	1960.48	0.56
323.15	1955.06	0.56
325.65	1949.8	0.56
328.15	1944.55	0.56
330.65	1939.28	0.56
333.15	1934.02	0.56
335.65	1928.52	0.56
338.15	1923.52	0.56

System: choline chloride + glycerol + water; phases: Liquid
Fixed: Pressure, kPa = 100
Fixed: Mole fraction of choline chloride = 0.249
Fixed: Mole fraction of glycerol = 0.496
Property: Refractive index (Na D-line) (Liquid); method: Standard Abbe refractometry
Temperature, K	Refractive index (Na D-line)	uncertainty
283.15	1.48158	0.00031
285.65	1.48104	0.00031
288.15	1.48048	0.00031
290.65	1.47991	0.00031
293.15	1.47934	0.00031
295.65	1.47877	0.00031
298.15	1.47818	0.00031
300.65	1.47761	0.00031
303.15	1.47702	0.00031
305.65	1.47644	0.00031
308.15	1.47586	0.00031
310.65	1.47528	0.00031
313.15	1.4747	0.00031
315.65	1.4741	0.00031
318.15	1.47353	0.00031
320.65	1.47294	0.00031
323.15	1.47235	0.00031
325.65	1.47176	0.00031
328.15	1.47117	0.00031
330.65	1.47059	0.00031
333.15	1.47	0.00031
335.65	1.4694	0.00031
338.15	1.46881	0.00031

System: choline chloride + glycerol + water; phases: Liquid, Air at 1 atmosphere
Fixed: Mole fraction of choline chloride = 0.249
Fixed: Mole fraction of glycerol = 0.496
Property: Surface tension liquid-gas, N/m (Liquid); method: Drop volume
Temperature, K	Surface tension liquid-gas, N/m	uncertainty
278.15	0.06943	0.00033
280.65	0.06931	0.00033
283.15	0.06919	0.00033
285.65	0.06906	0.00033
288.15	0.06892	0.00033
290.65	0.06878	0.00032
293.15	0.06864	0.00032
295.65	0.06851	0.00032
298.15	0.06839	0.00032
300.65	0.06826	0.00032
303.15	0.06814	0.00032
305.65	0.068	0.00032
308.15	0.06787	0.00032
310.65	0.06777	0.00032
313.15	0.06765	0.00032
315.65	0.06755	0.00032
318.15	0.06744	0.00032
320.65	0.06731	0.00032
323.15	0.06717	0.00032
325.65	0.06703	0.00032
328.15	0.0669	0.00032
330.65	0.06679	0.00032
333.15	0.06665	0.00032
335.65	0.06652	0.00032
338.15	0.06639	0.00032

System: choline chloride + glycerol + water; phases: Liquid
Fixed: Pressure, kPa = 100
Fixed: Mole fraction of choline chloride = 0.249
Fixed: Mole fraction of glycerol = 0.496
Property: Molar heat capacity at constant pressure, J/K/mol (Liquid); method: DSC
Temperature, K	Molar heat capacity at constant pressure, J/K/mol	uncertainty
278.15	181.5	7
280.65	182.5	7.1
283.15	183	7.1
285.65	184	7.1
288.15	185	7.2
290.65	186	7.2
293.15	186.5	7.2
295.65	187	7.2
298.15	188	7.3
300.65	189	7.3
303.15	190	7.4
305.65	191	7.4
308.15	191.5	7.4
310.65	192	7.4
313.15	193	7.5
315.65	194	7.5
318.15	195	7.6
320.65	195.5	7.6
323.15	196.5	7.6
325.65	197.5	7.6
328.15	198	7.7
330.65	199	7.7
333.15	199.5	7.7
335.65	200.5	7.8
338.15	201	7.8

System: choline chloride + glycerol + water; phases: Liquid
Fixed: Pressure, kPa = 100
Fixed: Mole fraction of choline chloride = 0.249
Fixed: Mole fraction of glycerol = 0.496
Fixed: Frequency, MHz = 0.002
Property: Electrical conductivity, S/m (Liquid); method: Alternating current cell with electrodes
Temperature, K	Electrical conductivity, S/m	uncertainty
278.15	0.061	0.0012
280.65	0.0757	0.0015
283.15	0.0928	0.0019
285.65	0.112	0.002
288.15	0.135	0.003
290.65	0.16	0.003
293.15	0.189	0.004
295.65	0.22	0.004
298.15	0.255	0.005
300.65	0.293	0.006
303.15	0.335	0.007
305.65	0.381	0.008
308.15	0.43	0.009
310.65	0.484	0.01
313.15	0.541	0.011
315.65	0.602	0.012
318.15	0.667	0.013
320.65	0.736	0.015
323.15	0.808	0.016
325.65	0.885	0.018
328.15	0.966	0.019
330.65	1.05	0.02
333.15	1.14	0.02
335.65	1.23	0.03
338.15	1.33	0.03

System: choline chloride + glycerol + water; phases: Liquid
Fixed: Pressure, kPa = 100
Fixed: Mole fraction of choline chloride = 0.249
Fixed: Mole fraction of glycerol = 0.496
Property: Viscosity, Pa*s (Liquid); method: Capillary tube (Ostwald; Ubbelohde) method
Temperature, K	Viscosity, Pa*s	uncertainty
278.15	0.594	0.0256
280.65	0.4881	0.0198
283.15	0.4044	0.0154
285.65	0.337	0.012
288.15	0.2823	0.0094
290.65	0.2386	0.0075
293.15	0.203	0.006
295.65	0.1726	0.0048
298.15	0.1478	0.0039
300.65	0.128	0.0032
303.15	0.1113	0.0026
305.65	0.09713	0.0022
308.15	0.08525	0.00185
310.65	0.07514	0.00158
313.15	0.06648	0.00137
315.65	0.05901	0.00119
318.15	0.05261	0.00106
320.65	0.04712	0.00096
323.15	0.04248	0.00087
325.65	0.03828	0.00078
328.15	0.03466	0.00071
330.65	0.03147	0.00064
333.15	0.02866	0.00058
335.65	0.02614	0.00053
338.15	0.02394	0.00049
