Measured thermophysical data. The Effects of Surfaces and Confinement on Formic Acid Dehydrogenation Catalyzed by Immobilized Ru-H Complexes: Insights from Molecular Simulation and Neutron Scattering
Source: JOURNAL, 2024, 10.1021/xxx.xxxx.99999
Compound 1: 1,4-dioxane, C4H8O2, InChI=1S/C4H8O2/c1-2-6-4-3-5-1/h1-4H2
Compound 2: formic acid, CH2O2, InChI=1S/CH2O2/c2-1-3/h1H,(H,2,3)

System: 1,4-dioxane + formic acid; phases: Liquid
Fixed: Temperature, K = 298.15
Fixed: Pressure, kPa = 101
Property: Excess molar enthalpy (molar enthalpy of mixing), kJ/mol (Liquid); method: n/a
Mole fraction of 1,4-dioxane	Excess molar enthalpy (molar enthalpy of mixing), kJ/mol	uncertainty
0.20	-1.09043	0.34094
0.40	-1.45257	0.37676
0.60	-1.23283	0.43594
0.80	-0.66402	0.50605

System: 1,4-dioxane + formic acid; phases: Liquid
Fixed: Temperature, K = 303.15
Fixed: Pressure, kPa = 101
Property: Excess molar enthalpy (molar enthalpy of mixing), kJ/mol (Liquid); method: n/a
Mole fraction of 1,4-dioxane	Excess molar enthalpy (molar enthalpy of mixing), kJ/mol	uncertainty
0.20	-1.10691	0.58820
0.40	-1.48017	0.60938
0.60	-1.25172	0.62830
0.80	-0.69201	0.65447

System: 1,4-dioxane + formic acid; phases: Liquid
Fixed: Temperature, K = 293.15
Fixed: Pressure, kPa = 101
Property: Excess molar volume, m3/mol (Liquid); method: n/a
Mole fraction of 1,4-dioxane	Excess molar volume, m3/mol	uncertainty
0.20	-0.29667e-06	0.23747e-06
0.40	-0.29924e-06	0.24491e-06
0.60	-0.17925e-06	0.26560e-06
0.80	-0.04826e-06	0.30405e-06

System: 1,4-dioxane + formic acid; phases: Liquid
Fixed: Temperature, K = 293.15
Fixed: Pressure, kPa = 101
Property: Mass density, kg/m3 (Liquid); method: n/a
Mole fraction of 1,4-dioxane	Mass density, kg/m3	uncertainty
0.20	1166.2608	0.80752
0.40	1121.6544	1.20860
0.60	1087.777	0.84835
0.80	1062.3101	1.05610

System: 1,4-dioxane + formic acid; phases: Liquid
Fixed: Temperature, K = 348.15
Fixed: Pressure, kPa = 101
Property: Mass density, kg/m3 (Liquid); method: n/a
Mole fraction of 1,4-dioxane	Mass density, kg/m3	uncertainty
0.20	1100.4854	0.70517
0.40	1057.6346	0.69973
0.50	1039.9462	0.8610
0.60	1024.2888	0.91822
0.80	998.5071	0.57198
0.90	987.75882	1.00571

System: 1,4-dioxane; phases: Liquid
Fixed: Pressure, kPa = 101.000
Property: Mass density, kg/m3 (Liquid); method: n/a
Temperature, K	Mass density, kg/m3	uncertainty
293.15	1043.4378	0.66598
295.15	1041.0854	0.87074
298.15	1037.6628	0.93715
303.15	1031.8034	0.80448
313.15	1020.0574	0.99180
323.15	1008.2554	0.74948
348.15	978.43912	0.46205

System: formic acid; phases: Liquid
Fixed: Pressure, kPa = 101.000
Property: Mass density, kg/m3 (Liquid); method: n/a
Temperature, K	Mass density, kg/m3	uncertainty
293.15	1223.755	0.57433
295.15	1221.2876	0.54738
298.15	1217.6072	0.67464
303.15	1211.5294	0.62863
313.15	1199.2596	0.57305
323.15	1186.8726	0.70271
348.15	1155.5100	0.64253
