Measured thermophysical data. Example file
Source: 
Compound 1: choline, C5H14NO+, InChI=1S/C5H14NO/c1-6(2,3)4-5-7/h7H,4-5H2,1-3H3/q+1
Compound 2: 16887-00-6, Cl-, InChI=1S/ClH/h1H/p-1
Compound 3: glycerol, C3H8O3, InChI=1S/C3H8O3/c4-1-3(6)2-5/h3-6H,1-2H2
Compound 4: water, H2O, InChI=1S/H2O/h1H2
Compound 5: carbon dioxide, CO2, InChI=1S/CO2/c2-1-3
Compound 6: 7782-44-7, O2, InChI=1S/O2/c1-2
Compound 7: 02329_FLUKA, CH4, InChI=1S/CH4/h1H4
Compound 8: 7727-37-9, N2, InChI=1S/N2/c1-2

System: water; phases: Liquid
Fixed: Mole fraction of water = 1.0
Fixed: Pressure, kPa = 100.0
Property: Mass density, kg/m3 (Liquid); method: N/A
Temperature, K	Mass density, kg/m3	uncertainty
313.15	989.26692	0.132553
323.15	984.23857	0.029222
333.15	978.73098	0.470517
343.15	972.22267	0.368699
353.15	965.13213	0.251989

System: water; phases: Liquid
Fixed: Mole fraction of water = 1.0
Fixed: Pressure, kPa = 100.0
Property: Molar enthalpy, kJ/mol (Liquid); method: N/A
Temperature, K	Molar enthalpy, kJ/mol	uncertainty
313.15	-113162.5134	16.404579
323.15	-110550.96845	7.78308
333.15	-107971.66792	30.769541
343.15	-105389.20995	35.461666
353.15	-102849.66809	34.538222

System: water + choline + 16887-00-6 + glycerol; phases: Liquid
Fixed: Mole fraction of water = 0.0
Fixed: Mole fraction of glycerol = 0.667
Fixed: Mole fraction of choline = 0.167
Fixed: Mole fraction of 16887-00-6 = 0.166
Fixed: Pressure, kPa = 100.0
Property: Excess molar enthalpy (molar enthalpy of mixing), kJ/mol (Liquid); method: N/A
Temperature, K	Excess molar enthalpy (molar enthalpy of mixing), kJ/mol	uncertainty
298.15	0.0	0.0
308.15	0.0	0.0

System: water + choline + 16887-00-6 + glycerol; phases: Liquid
Fixed: Mole fraction of water = 0.2439
Fixed: Mole fraction of glycerol = 0.504
Fixed: Mole fraction of choline = 0.126
Fixed: Mole fraction of 16887-00-6 = 0.1261
Fixed: Pressure, kPa = 100.0
Property: Excess molar enthalpy (molar enthalpy of mixing), kJ/mol (Liquid); method: N/A
Temperature, K	Excess molar enthalpy (molar enthalpy of mixing), kJ/mol	uncertainty
308.15	-557.64	0.0

System: water + choline + 16887-00-6 + glycerol; phases: Liquid
Fixed: Mole fraction of water = 0.2492
Fixed: Mole fraction of glycerol = 0.501
Fixed: Mole fraction of choline = 0.125
Fixed: Mole fraction of 16887-00-6 = 0.1248
Fixed: Pressure, kPa = 100.0
Property: Excess molar enthalpy (molar enthalpy of mixing), kJ/mol (Liquid); method: N/A
Temperature, K	Excess molar enthalpy (molar enthalpy of mixing), kJ/mol	uncertainty
298.15	-477.69	0.0

System: water + choline + 16887-00-6 + glycerol; phases: Liquid
Fixed: Mole fraction of water = 0.3982
Fixed: Mole fraction of glycerol = 0.401
Fixed: Mole fraction of choline = 0.1
Fixed: Mole fraction of 16887-00-6 = 0.1008
Fixed: Pressure, kPa = 100.0
Property: Excess molar enthalpy (molar enthalpy of mixing), kJ/mol (Liquid); method: N/A
Temperature, K	Excess molar enthalpy (molar enthalpy of mixing), kJ/mol	uncertainty
308.15	-818.22	0.0

System: water + choline + 16887-00-6 + glycerol; phases: Liquid
Fixed: Mole fraction of water = 0.3998
Fixed: Mole fraction of glycerol = 0.4
Fixed: Mole fraction of choline = 0.1
Fixed: Mole fraction of 16887-00-6 = 0.1002
Fixed: Pressure, kPa = 100.0
Property: Excess molar enthalpy (molar enthalpy of mixing), kJ/mol (Liquid); method: N/A
Temperature, K	Excess molar enthalpy (molar enthalpy of mixing), kJ/mol	uncertainty
298.15	-727.53	0.0

System: water + choline + 16887-00-6 + glycerol; phases: Liquid
Fixed: Mole fraction of water = 0.4928
Fixed: Mole fraction of glycerol = 0.338
Fixed: Mole fraction of choline = 0.085
Fixed: Mole fraction of 16887-00-6 = 0.0842
Fixed: Pressure, kPa = 100.0
Property: Excess molar enthalpy (molar enthalpy of mixing), kJ/mol (Liquid); method: N/A
Temperature, K	Excess molar enthalpy (molar enthalpy of mixing), kJ/mol	uncertainty
308.15	-867.63	0.0

System: water + choline + 16887-00-6 + glycerol; phases: Liquid
Fixed: Mole fraction of water = 0.5137
Fixed: Mole fraction of glycerol = 0.324
Fixed: Mole fraction of choline = 0.081
Fixed: Mole fraction of 16887-00-6 = 0.0813
Fixed: Pressure, kPa = 100.0
Property: Excess molar enthalpy (molar enthalpy of mixing), kJ/mol (Liquid); method: N/A
Temperature, K	Excess molar enthalpy (molar enthalpy of mixing), kJ/mol	uncertainty
298.15	-896.93	0.0

System: water + choline + 16887-00-6 + glycerol; phases: Liquid
Fixed: Mole fraction of water = 0.6605
Fixed: Mole fraction of glycerol = 0.226
Fixed: Mole fraction of choline = 0.057
Fixed: Mole fraction of 16887-00-6 = 0.0565
Fixed: Pressure, kPa = 100.0
Property: Excess molar enthalpy (molar enthalpy of mixing), kJ/mol (Liquid); method: N/A
Temperature, K	Excess molar enthalpy (molar enthalpy of mixing), kJ/mol	uncertainty
308.15	-939.17	0.0

System: water + choline + 16887-00-6 + glycerol; phases: Liquid
Fixed: Mole fraction of water = 0.6813
Fixed: Mole fraction of glycerol = 0.212
Fixed: Mole fraction of choline = 0.053
Fixed: Mole fraction of 16887-00-6 = 0.0537
Fixed: Pressure, kPa = 100.0
Property: Excess molar enthalpy (molar enthalpy of mixing), kJ/mol (Liquid); method: N/A
Temperature, K	Excess molar enthalpy (molar enthalpy of mixing), kJ/mol	uncertainty
298.15	-935.48	0.0

System: water + choline + 16887-00-6 + glycerol; phases: Liquid
Fixed: Mole fraction of water = 0.7614
Fixed: Mole fraction of glycerol = 0.159
Fixed: Mole fraction of choline = 0.04
Fixed: Mole fraction of 16887-00-6 = 0.0396
Fixed: Pressure, kPa = 100.0
Property: Excess molar enthalpy (molar enthalpy of mixing), kJ/mol (Liquid); method: N/A
Temperature, K	Excess molar enthalpy (molar enthalpy of mixing), kJ/mol	uncertainty
298.15	-846.59	0.0

System: water + choline + 16887-00-6 + glycerol; phases: Liquid
Fixed: Mole fraction of water = 0.7948
Fixed: Mole fraction of glycerol = 0.137
Fixed: Mole fraction of choline = 0.034
Fixed: Mole fraction of 16887-00-6 = 0.0342
Fixed: Pressure, kPa = 100.0
Property: Excess molar enthalpy (molar enthalpy of mixing), kJ/mol (Liquid); method: N/A
Temperature, K	Excess molar enthalpy (molar enthalpy of mixing), kJ/mol	uncertainty
308.15	-778.52	0.0

System: water + choline + 16887-00-6 + glycerol; phases: Liquid
Fixed: Mole fraction of water = 0.8093
Fixed: Mole fraction of glycerol = 0.127
Fixed: Mole fraction of choline = 0.032
Fixed: Mole fraction of 16887-00-6 = 0.0317
Fixed: Pressure, kPa = 100.0
Property: Excess molar enthalpy (molar enthalpy of mixing), kJ/mol (Liquid); method: N/A
Temperature, K	Excess molar enthalpy (molar enthalpy of mixing), kJ/mol	uncertainty
298.15	-747.38	0.0

System: water + choline + 16887-00-6 + glycerol; phases: Liquid
Fixed: Mole fraction of water = 0.8524
Fixed: Mole fraction of glycerol = 0.098
Fixed: Mole fraction of choline = 0.025
Fixed: Mole fraction of 16887-00-6 = 0.0246
Fixed: Pressure, kPa = 100.0
Property: Excess molar enthalpy (molar enthalpy of mixing), kJ/mol (Liquid); method: N/A
Temperature, K	Excess molar enthalpy (molar enthalpy of mixing), kJ/mol	uncertainty
308.15	-511.68	0.0

System: water + choline + 16887-00-6 + glycerol; phases: Liquid
Fixed: Mole fraction of water = 0.8642
Fixed: Mole fraction of glycerol = 0.091
Fixed: Mole fraction of choline = 0.023
Fixed: Mole fraction of 16887-00-6 = 0.0218
Fixed: Pressure, kPa = 100.0
Property: Excess molar enthalpy (molar enthalpy of mixing), kJ/mol (Liquid); method: N/A
Temperature, K	Excess molar enthalpy (molar enthalpy of mixing), kJ/mol	uncertainty
298.15	-483.09	0.0

System: water + choline + 16887-00-6 + glycerol; phases: Liquid
Fixed: Mole fraction of water = 0.9203
Fixed: Mole fraction of glycerol = 0.053
Fixed: Mole fraction of choline = 0.013
Fixed: Mole fraction of 16887-00-6 = 0.0137
Fixed: Pressure, kPa = 100.0
Property: Excess molar enthalpy (molar enthalpy of mixing), kJ/mol (Liquid); method: N/A
Temperature, K	Excess molar enthalpy (molar enthalpy of mixing), kJ/mol	uncertainty
308.15	-301.59	0.0

System: water + choline + 16887-00-6 + glycerol; phases: Liquid
Fixed: Mole fraction of water = 0.9497
Fixed: Mole fraction of glycerol = 0.034
Fixed: Mole fraction of choline = 0.008
Fixed: Mole fraction of 16887-00-6 = 0.0083
Fixed: Pressure, kPa = 100.0
Property: Excess molar enthalpy (molar enthalpy of mixing), kJ/mol (Liquid); method: N/A
Temperature, K	Excess molar enthalpy (molar enthalpy of mixing), kJ/mol	uncertainty
298.15	-194.33	0.0

System: water + choline + 16887-00-6 + glycerol; phases: Liquid
Fixed: Mole fraction of water = 0.9582
Fixed: Mole fraction of glycerol = 0.028
Fixed: Mole fraction of choline = 0.007
Fixed: Mole fraction of 16887-00-6 = 0.0068
Fixed: Pressure, kPa = 100.0
Property: Excess molar enthalpy (molar enthalpy of mixing), kJ/mol (Liquid); method: N/A
Temperature, K	Excess molar enthalpy (molar enthalpy of mixing), kJ/mol	uncertainty
308.15	-157.52	0.0

System: water + choline + 16887-00-6 + glycerol; phases: Liquid
Fixed: Mole fraction of water = 0.9618
Fixed: Mole fraction of glycerol = 0.025
Fixed: Mole fraction of choline = 0.006
Fixed: Mole fraction of 16887-00-6 = 0.0072
Fixed: Pressure, kPa = 100.0
Property: Excess molar enthalpy (molar enthalpy of mixing), kJ/mol (Liquid); method: N/A
Temperature, K	Excess molar enthalpy (molar enthalpy of mixing), kJ/mol	uncertainty
298.15	-146.46	0.0

System: water + choline + 16887-00-6 + glycerol; phases: Liquid
Fixed: Mole fraction of water = 1.0
Fixed: Mole fraction of glycerol = 0.0
Fixed: Mole fraction of choline = 0.0
Fixed: Mole fraction of 16887-00-6 = 0.0
Fixed: Pressure, kPa = 100.0
Property: Excess molar enthalpy (molar enthalpy of mixing), kJ/mol (Liquid); method: N/A
Temperature, K	Excess molar enthalpy (molar enthalpy of mixing), kJ/mol	uncertainty
308.15	0.0	0.0
298.15	0.0	0.0
