Measured thermophysical data. Glycerol Viscosity Tables
Source: 10.1021/ie50273a022
Compound 1: water, , InChI=1S/H2O/h1H2
Compound 2: glycerol, , InChI=1S/C3H8O3/c4-1-3(6)2-5/h3-6H,1-2H2

System: water + glycerol
Property: Viscosity, Pa*s
Temperature, K	Mole fraction of water	Mole fraction of glycerol	Viscosity, Pa*s	uncertainty
293.15	0.02	0.98	1.385	NG
295.65	0.02	0.98	1.102	NG
298.15	0.02	0.98	0.884	NG
300.65	0.02	0.98	0.7155	NG
303.15	0.02	0.98	0.5833	NG
293.15	0.06	0.94	1.158	NG
295.65	0.06	0.94	0.926	NG
298.15	0.06	0.94	0.7474	NG
300.65	0.06	0.94	0.6073	NG
303.15	0.06	0.94	0.4962	NG
293.15	0.09	0.91	0.986	NG
295.65	0.09	0.91	0.7898	NG
298.15	0.09	0.91	0.6368	NG
300.65	0.09	0.91	0.5198	NG
303.15	0.09	0.91	0.4272	NG
293.15	0.14	0.86	0.7835	NG
295.65	0.14	0.86	0.6296	NG
298.15	0.14	0.86	0.5123	NG
300.65	0.14	0.86	0.4207	NG
303.15	0.14	0.86	0.3467	NG
293.15	0.16	0.84	0.724	NG
295.65	0.16	0.84	0.5829	NG
298.15	0.16	0.84	0.4748	NG
300.65	0.16	0.84	0.3899	NG
303.15	0.16	0.84	0.3224	NG
293.15	0.17	0.83	0.6716	NG
295.65	0.17	0.83	0.5421	NG
298.15	0.17	0.83	0.4418	NG
300.65	0.17	0.83	0.3636	NG
303.15	0.17	0.83	0.3006	NG
293.15	0.19	0.81	0.6185	NG
295.65	0.19	0.81	0.4995	NG
298.15	0.19	0.81	0.4083	NG
300.65	0.19	0.81	0.3366	NG
303.15	0.19	0.81	0.2796	NG
293.15	0.21	0.79	0.5656	NG
295.65	0.21	0.79	0.4576	NG
298.15	0.21	0.79	0.3749	NG
300.65	0.21	0.79	0.3097	NG
303.15	0.21	0.79	0.2572	NG
293.15	0.24	0.76	0.4817	NG
295.65	0.24	0.76	0.3907	NG
298.15	0.24	0.76	0.3215	NG
300.65	0.24	0.76	0.2663	NG
303.15	0.24	0.76	0.2223	NG
293.15	0.26	0.74	0.4423	NG
295.65	0.26	0.74	0.3599	NG
298.15	0.26	0.74	0.2959	NG
300.65	0.26	0.74	0.2456	NG
303.15	0.26	0.74	0.2059	NG
293.15	0.28	0.72	0.3756	NG
295.65	0.28	0.72	0.3068	NG
298.15	0.28	0.72	0.2547	NG
300.65	0.28	0.72	0.2121	NG
303.15	0.28	0.72	0.1779	NG
293.15	0.3	0.7	0.3379	NG
295.65	0.3	0.7	0.2765	NG
298.15	0.3	0.7	0.2292	NG
300.65	0.3	0.7	0.1916	NG
303.15	0.3	0.7	0.161	NG
293.15	0.34	0.66	0.268	NG
295.65	0.34	0.66	0.2205	NG
298.15	0.34	0.66	0.1838	NG
300.65	0.34	0.66	0.1544	NG
303.15	0.34	0.66	0.1304	NG
293.15	0.37	0.63	0.2316	NG
295.65	0.37	0.63	0.1915	NG
298.15	0.37	0.63	0.1606	NG
300.65	0.37	0.63	0.1351	NG
303.15	0.37	0.63	0.1145	NG
293.15	0.41	0.59	0.1722	NG
295.65	0.41	0.59	0.1434	NG
298.15	0.41	0.59	0.1209	NG
300.65	0.41	0.59	0.1027	NG
303.15	0.41	0.59	0.08765	NG
293.15	0.44	0.56	0.14042	NG
295.65	0.44	0.56	0.11787	NG
298.15	0.44	0.56	0.09986	NG
300.65	0.44	0.56	0.0852	NG
303.15	0.44	0.56	0.07312	NG
293.15	0.45	0.55	0.13108	NG
295.65	0.45	0.55	0.1102	NG
298.15	0.45	0.55	0.09352	NG
300.65	0.45	0.55	0.07981	NG
303.15	0.45	0.55	0.06864	NG
293.15	0.49	0.51	0.10317	NG
295.65	0.49	0.51	0.08723	NG
298.15	0.49	0.51	0.0745	NG
300.65	0.49	0.51	0.06408	NG
303.15	0.49	0.51	0.05529	NG
293.15	0.52	0.48	0.08573	NG
295.65	0.52	0.48	0.07275	NG
298.15	0.52	0.48	0.06253	NG
300.65	0.52	0.48	0.05401	NG
303.15	0.52	0.48	0.0469	NG
293.15	0.55	0.45	0.07028	NG
295.65	0.55	0.45	0.06008	NG
298.15	0.55	0.45	0.0519	NG
293.15	0.57	0.43	0.05779	NG
295.65	0.57	0.43	0.04952	NG
298.15	0.57	0.43	0.04285	NG
300.65	0.57	0.43	0.03749	NG
303.15	0.57	0.43	0.03286	NG
293.15	0.59	0.41	0.04797	NG
295.65	0.59	0.41	0.04141	NG
298.15	0.59	0.41	0.03608	NG
300.65	0.59	0.41	0.03158	NG
303.15	0.59	0.41	0.02781	NG
293.15	0.62	0.38	0.03898	NG
295.65	0.62	0.38	0.0338	NG
298.15	0.62	0.38	0.02961	NG
300.65	0.62	0.38	0.02606	NG
303.15	0.62	0.38	0.02302	NG
293.15	0.64	0.36	0.03511	NG
295.65	0.64	0.36	0.03057	NG
298.15	0.64	0.36	0.02681	NG
300.65	0.64	0.36	0.02364	NG
303.15	0.64	0.36	0.02097	NG
293.15	0.66	0.34	0.02857	NG
295.65	0.66	0.34	0.02498	NG
298.15	0.66	0.34	0.02203	NG
300.65	0.66	0.34	0.01956	NG
303.15	0.66	0.34	0.01741	NG
293.15	0.68	0.32	0.02335	NG
295.65	0.68	0.32	0.02053	NG
298.15	0.68	0.32	0.01821	NG
300.65	0.68	0.32	0.01623	NG
303.15	0.68	0.32	0.01453	NG
293.15	0.72	0.28	0.01789	NG
295.65	0.72	0.28	0.01586	NG
298.15	0.72	0.28	0.01412	NG
300.65	0.72	0.28	0.01268	NG
303.15	0.72	0.28	0.0114	NG
293.15	0.74	0.26	0.01513	NG
295.65	0.74	0.26	0.01346	NG
298.15	0.74	0.26	0.01205	NG
300.65	0.74	0.26	0.01084	NG
303.15	0.74	0.26	0.0098	NG
293.15	0.74	0.26	0.01499	NG
295.65	0.74	0.26	0.01335	NG
298.15	0.74	0.26	0.01196	NG
300.65	0.74	0.26	0.01079	NG
303.15	0.74	0.26	0.00975	NG
295.65	0.75	0.25	0.011642	NG
298.15	0.75	0.25	0.010473	NG
300.65	0.75	0.25	0.009438	NG
303.15	0.75	0.25	0.008548	NG
293.15	0.76	0.24	0.012061	NG
295.65	0.76	0.24	0.010793	NG
298.15	0.76	0.24	0.009731	NG
300.65	0.76	0.24	0.008792	NG
303.15	0.76	0.24	0.007986	NG
293.15	0.78	0.22	0.010787	NG
295.65	0.78	0.22	0.009679	NG
298.15	0.78	0.22	0.008756	NG
300.65	0.78	0.22	0.007918	NG
303.15	0.78	0.22	0.007222	NG
293.15	0.78	0.22	0.01007	NG
295.65	0.78	0.22	0.009074	NG
298.15	0.78	0.22	0.008184	NG
300.65	0.78	0.22	0.00743	NG
303.15	0.78	0.22	0.00677	NG
293.15	0.79	0.21	0.009092	NG
295.65	0.79	0.21	0.008209	NG
298.15	0.79	0.21	0.007447	NG
300.65	0.79	0.21	0.006778	NG
303.15	0.79	0.21	0.006187	NG
293.15	0.8	0.2	0.008282	NG
295.65	0.8	0.2	0.007494	NG
298.15	0.8	0.2	0.006804	NG
300.65	0.8	0.2	0.006203	NG
303.15	0.8	0.2	0.005679	NG
293.15	0.81	0.19	0.0076	NG
298.15	0.81	0.19	0.006266	NG
303.15	0.81	0.19	0.005236	NG
293.15	0.83	0.17	0.006516	NG
298.15	0.83	0.17	0.005409	NG
303.15	0.83	0.17	0.004552	NG
293.15	0.85	0.15	0.005518	NG
298.15	0.85	0.15	0.004611	NG
303.15	0.85	0.15	0.003909	NG
293.15	0.86	0.14	0.004668	NG
298.15	0.86	0.14	0.003927	NG
303.15	0.86	0.14	0.003347	NG
293.15	0.88	0.12	0.004029	NG
298.15	0.88	0.12	0.003407	NG
303.15	0.88	0.12	0.002919	NG
293.15	0.89	0.11	0.003595	NG
298.15	0.89	0.11	0.003054	NG
303.15	0.89	0.11	0.002625	NG
293.15	0.9	0.1	0.003207	NG
298.15	0.9	0.1	0.002741	NG
303.15	0.9	0.1	0.002364	NG
293.15	0.91	0.09	0.002822	NG
298.15	0.91	0.09	0.00242	NG
303.15	0.91	0.09	0.002098	NG
293.15	0.92	0.08	0.002545	NG
298.15	0.92	0.08	0.002191	NG
303.15	0.92	0.08	0.001907	NG
293.15	0.93	0.07	0.002323	NG
298.15	0.93	0.07	0.002007	NG
303.15	0.93	0.07	0.001751	NG
293.15	0.94	0.06	0.001995	NG
298.15	0.94	0.06	0.001731	NG
303.15	0.94	0.06	0.00152	NG
293.15	0.95	0.05	0.001756	NG
298.15	0.95	0.05	0.00153	NG
303.15	0.95	0.05	0.001351	NG
293.15	0.96	0.04	0.001634	NG
298.15	0.96	0.04	0.001428	NG
303.15	0.96	0.04	0.001259	NG
293.15	0.97	0.03	0.001478	NG
298.15	0.97	0.03	0.001295	NG
303.15	0.97	0.03	0.001147	NG
293.15	0.98	0.02	0.001331	NG
298.15	0.98	0.02	0.001172	NG
303.15	0.98	0.02	0.00104	NG
293.15	0.98	0.02	0.001216	NG
298.15	0.98	0.02	0.001073	NG
303.15	0.98	0.02	0.000956	NG
293.15	0.99	0.01	0.001109	NG
298.15	0.99	0.01	0.000981	NG
303.15	0.99	0.01	0.000877	NG
