Measured thermophysical data. The Viscosity of Glycerolâˆ’Water Mixtures Including the Supercooled Region
Source: 10.1021/je101164q
Compound 1: water, , InChI=1S/H2O/h1H2
Compound 2: glycerol, , InChI=1S/C3H8O3/c4-1-3(6)2-5/h3-6H,1-2H2

System: water + glycerol
Property: Viscosity, Pa*s
Temperature, K	Mole fraction of water	Mole fraction of glycerol	Viscosity, Pa*s	uncertainty
243.15	0.69	0.31	1.046	NG
243.15	0.77	0.23	0.244	NG
253.15	0.56	0.44	1.6	NG
253.15	0.69	0.31	0.394	NG
253.15	0.77	0.23	0.108	NG
253.15	0.84	0.16	0.0481	NG
263.15	0.56	0.44	0.683	NG
263.15	0.69	0.31	0.151	NG
263.15	0.77	0.23	0.0581	NG
263.15	0.84	0.16	0.0244	NG
263.15	0.88	0.12	0.0144	NG
268.15	0.56	0.44	0.419	NG
268.15	0.69	0.31	0.11	NG
268.15	0.77	0.23	0.0416	NG
268.15	0.84	0.16	0.0188	NG
268.15	0.88	0.12	0.0103	NG
268.15	0.92	0.08	0.0065	NG
273.15	0.56	0.44	0.255	NG
273.15	0.69	0.31	0.076	NG
273.15	0.0	1.0	12.07	NG
273.15	0.36	0.64	1.31	NG
273.15	0.77	0.23	0.0299	NG
273.15	0.84	0.16	0.0146	NG
273.15	0.88	0.12	0.00825	NG
273.15	0.92	0.08	0.00514	NG
273.15	0.95	0.05	0.00344	NG
273.15	0.98	0.02	0.00244	NG
