Measured thermophysical data. Novel solvent properties of choline chloride/urea mixtures
Source: 10.1039/b210714g
Compound 1: water, , InChI=1S/H2O/h1H2
Compound 2: choline choloride, , InChI=1S/C5H14NO.ClH/c1-6(2,3)4-5-7;/h7H,4-5H2,1-3H3;1H/q+1;/p-1
Compound 3: urea, , InChI=1S/CH4N2O/c2-1(3)4/h(H4,2,3,4)

System: water + choline choloride + urea
Property: Viscosity, Pa*s
Temperature, K	Mole fraction of water	Mole fraction of choline choloride	Mole fraction of urea	Viscosity, Pa*s	uncertainty
293.15	0.0	0.33	0.67	1.075	NG
303.15	0.0	0.33	0.67	0.4475	NG
313.15	0.0	0.33	0.67	0.2075	NG
323.15	0.0	0.33	0.67	0.11	NG
