Measured thermophysical data. Application of Hole Theory to Define Ionic Liquids by their Transport Properties
Source: 10.1021/jp0671998
Compound 1: water, , InChI=1S/H2O/h1H2
Compound 2: choline choloride, , InChI=1S/C5H14NO.ClH/c1-6(2,3)4-5-7;/h7H,4-5H2,1-3H3;1H/q+1;/p-1
Compound 3: glycerol, , InChI=1S/C3H8O3/c4-1-3(6)2-5/h3-6H,1-2H2

System: water + choline choloride + glycerol
Property: Viscosity, Pa*s
Temperature, K	Mole fraction of water	Mole fraction of choline choloride	Mole fraction of glycerol	Viscosity, Pa*s	uncertainty
293.15	0.0	0.05	0.95	0.998	NG
293.15	0.0	0.1	0.9	0.79	NG
293.15	0.0	0.15	0.85	0.548	NG
293.15	0.0	0.2	0.8	0.503	NG
293.15	0.0	0.25	0.75	0.45	NG
293.15	0.0	0.3	0.7	0.401	NG
293.15	0.0	0.33	0.67	0.376	NG
