Measured thermophysical data. Studying of two choline chlorideâ€™s deep eutectic solvents in their aqueous mixtures
Source: Abdullah and Kadhom (IJERD)
Compound 1: water, , InChI=1S/H2O/h1H2
Compound 2: choline choloride, , InChI=1S/C5H14NO.ClH/c1-6(2,3)4-5-7;/h7H,4-5H2,1-3H3;1H/q+1;/p-1
Compound 3: glycerol, , InChI=1S/C3H8O3/c4-1-3(6)2-5/h3-6H,1-2H2

System: water + choline choloride + glycerol
Property: Viscosity, Pa*s
Temperature, K	Mole fraction of water	Mole fraction of choline choloride	Mole fraction of glycerol	Viscosity, Pa*s	uncertainty
290.803	0.95	0.02	0.04	0.003464	NG
293.235	0.95	0.02	0.04	0.003464	NG
298.309	0.95	0.02	0.04	0.004619	NG
303.277	0.95	0.02	0.04	0.002309	NG
308.245	0.95	0.02	0.04	0.002309	NG
313.213	0.95	0.02	0.04	0.003464	NG
323.256	0.95	0.02	0.04	0.002309	NG
333.192	0.95	0.02	0.04	0.002309	NG
343.235	0.95	0.02	0.04	0.002309	NG
353.383	0.95	0.02	0.04	0.003464	NG
298.309	0.67	0.11	0.22	0.018476	NG
303.171	0.67	0.11	0.22	0.016166	NG
308.245	0.67	0.11	0.22	0.012702	NG
313.319	0.67	0.11	0.22	0.010393	NG
323.256	0.67	0.11	0.22	0.009238	NG
333.298	0.67	0.11	0.22	0.005774	NG
343.235	0.67	0.11	0.22	0.004619	NG
353.277	0.67	0.11	0.22	0.003464	NG
285.624	0.4	0.2	0.4	0.145497	NG
288.055	0.4	0.2	0.4	0.122402	NG
290.592	0.4	0.2	0.4	0.105081	NG
293.129	0.4	0.2	0.4	0.091224	NG
295.56	0.4	0.2	0.4	0.080831	NG
298.097	0.4	0.2	0.4	0.070439	NG
300.634	0.4	0.2	0.4	0.061201	NG
303.065	0.4	0.2	0.4	0.055427	NG
308.139	0.4	0.2	0.4	0.04388	NG
313.213	0.4	0.2	0.4	0.035797	NG
323.15	0.4	0.2	0.4	0.025404	NG
333.192	0.4	0.2	0.4	0.01963	NG
343.129	0.4	0.2	0.4	0.015012	NG
353.171	0.4	0.2	0.4	0.011547	NG
293.12885	0.16	0.28	0.56	0.422633	NG
298.097	0.16	0.28	0.56	0.1697459584	NG
303.171	0.16	0.28	0.56	0.127021	NG
308.139	0.16	0.28	0.56	0.102771	NG
313.108	0.16	0.28	0.56	0.078522	NG
323.15	0.16	0.28	0.56	0.050808	NG
333.192	0.16	0.28	0.56	0.0358	NG
343.128	0.16	0.28	0.56	0.026559	NG
353.065	0.16	0.28	0.56	0.02194	NG
293.017	0.0	0.33	0.67	0.37947	NG
298.069	0.0	0.33	0.67	0.272179	NG
303.027	0.0	0.33	0.67	0.196157	NG
307.986	0.0	0.33	0.67	0.145444	NG
313.044	0.0	0.33	0.67	0.109618	NG
323.065	0.0	0.33	0.67	0.066255	NG
333.087	0.0	0.33	0.67	0.043736	NG
343.111	0.0	0.33	0.67	0.028661	NG
353.037	0.0	0.33	0.67	0.021032	NG
