Measured thermophysical data. Glycerol-based deep eutectic solvents: Physical properties
Source: 10.1016/j.molliq.2015.11.032
Compound 1: water, , InChI=1S/H2O/h1H2
Compound 2: choline choloride, , InChI=1S/C5H14NO.ClH/c1-6(2,3)4-5-7;/h7H,4-5H2,1-3H3;1H/q+1;/p-1
Compound 3: glycerol, , InChI=1S/C3H8O3/c4-1-3(6)2-5/h3-6H,1-2H2

System: water + choline choloride + glycerol
Property: Viscosity, Pa*s
Temperature, K	Mole fraction of water	Mole fraction of choline choloride	Mole fraction of glycerol	Viscosity, Pa*s	uncertainty
297.831	0.0	0.33	0.67	0.337764	NG
302.771	0.0	0.33	0.67	0.253648	NG
307.855	0.0	0.33	0.67	0.189501	NG
312.866	0.0	0.33	0.67	0.15527	NG
317.804	0.0	0.33	0.67	0.121029	NG
322.888	0.0	0.33	0.67	0.091795	NG
327.826	0.0	0.33	0.67	0.072517	NG
332.908	0.0	0.33	0.67	0.058245	NG
337.919	0.0	0.33	0.67	0.048952	NG
343.001	0.0	0.33	0.67	0.044656	NG
348.011	0.0	0.33	0.67	0.04035	NG
353.021	0.0	0.33	0.67	0.031056	NG
