Measured thermophysical data. Thermodynamic Properties of Water + Ethylene Glycol at 283.15, 293.15, 303.15, and 313.15 K
Source: 10.1021/je9800914
Compound 1: water, , InChI=1S/H2O/h1H2
Compound 2: ethylene glycol, , InChI=1S/C2H6O2/c3-1-2-4/h3-4H,1-2H2

System: water + ethylene glycol
Property: Viscosity, Pa*s
Temperature, K	Mole fraction of water	Mole fraction of ethylene glycol	Viscosity, Pa*s	uncertainty
283.15	1.0	0.0	0.0012982	1e-06
283.15	0.97	0.03	0.0016961	1e-06
283.15	0.95	0.05	0.0019711	1e-06
283.15	0.93	0.07	0.0022643	1e-06
283.15	0.9	0.1	0.0028498	1e-06
283.15	0.84	0.16	0.003947	1e-06
283.15	0.8	0.2	0.0047651	1e-06
293.15	1.0	0.0	0.0010021	1e-06
293.15	0.97	0.03	0.0012789	1e-06
293.15	0.95	0.05	0.0014602	1e-06
293.15	0.93	0.07	0.0016465	1e-06
293.15	0.9	0.1	0.0019903	1e-06
293.15	0.84	0.16	0.0027938	1e-06
293.15	0.8	0.2	0.0033431	1e-06
303.15	1.0	0.0	0.0008075	1e-06
303.15	0.97	0.03	0.0010185	1e-06
303.15	0.95	0.05	0.0011813	1e-06
303.15	0.93	0.07	0.0013166	1e-06
303.15	0.9	0.1	0.0015773	1e-06
303.15	0.84	0.16	0.0021312	1e-06
303.15	0.8	0.2	0.0024957	1e-06
313.15	1.0	0.0	0.000666	1e-06
313.15	0.97	0.03	0.0008238	1e-06
313.15	0.95	0.05	0.0009179	1e-06
313.15	0.93	0.07	0.0010342	1e-06
313.15	0.9	0.1	0.001244	1e-06
313.15	0.84	0.16	0.0016344	1e-06
313.15	0.8	0.2	0.0020742	1e-06
