Measured thermophysical data. Volumetric and Viscometric Studies on an Aqueous Urea Solution
Source: 10.1080/0031910029001/0464
Compound 1: water, , InChI=1S/H2O/h1H2
Compound 2: urea, , InChI=1S/CH4N2O/c2-1(3)4/h(H4,2,3,4)

System: water + urea
Property: Viscosity, Pa*s
Temperature, K	Mole fraction of water	Mole fraction of urea	Viscosity, Pa*s	uncertainty
308.15	0.98	0.02	0.0007612	NG
313.15	0.98	0.02	0.0006912	NG
318.15	0.98	0.02	0.0006293	NG
323.15	0.98	0.02	0.0005841	NG
328.15	0.98	0.02	0.0005318	NG
308.15	0.97	0.03	0.0007944	NG
313.15	0.97	0.03	0.0007169	NG
318.15	0.97	0.03	0.0006557	NG
323.15	0.97	0.03	0.0006023	NG
328.15	0.97	0.03	0.0005616	NG
308.15	0.95	0.05	0.0008302	NG
313.15	0.95	0.05	0.0007568	NG
318.15	0.95	0.05	0.0006939	NG
323.15	0.95	0.05	0.0006485	NG
328.15	0.95	0.05	0.0005884	NG
308.15	0.93	0.07	0.0008754	NG
313.15	0.93	0.07	0.0007895	NG
318.15	0.93	0.07	0.0007263	NG
323.15	0.93	0.07	0.0006694	NG
328.15	0.93	0.07	0.0006128	NG
308.15	0.92	0.08	0.000916	NG
313.15	0.92	0.08	0.0008365	NG
318.15	0.92	0.08	0.0007712	NG
323.15	0.92	0.08	0.0007012	NG
328.15	0.92	0.08	0.0006472	NG
308.15	0.9	0.1	0.0009544	NG
313.15	0.9	0.1	0.0008702	NG
318.15	0.9	0.1	0.0007978	NG
323.15	0.9	0.1	0.0007261	NG
328.15	0.9	0.1	0.0006803	NG
308.15	0.89	0.11	0.0010204	NG
313.15	0.89	0.11	0.000914	NG
318.15	0.89	0.11	0.0008423	NG
323.15	0.89	0.11	0.0007788	NG
328.15	0.89	0.11	0.00071	NG
308.15	0.87	0.13	0.0010488	NG
313.15	0.87	0.13	0.0009479	NG
318.15	0.87	0.13	0.0008735	NG
323.15	0.87	0.13	0.000803	NG
328.15	0.87	0.13	0.000739	NG
308.15	0.86	0.14	0.0010773	NG
313.15	0.86	0.14	0.0009819	NG
318.15	0.86	0.14	0.0009047	NG
323.15	0.86	0.14	0.0008273	NG
328.15	0.86	0.14	0.0007679	NG
