Measured thermophysical data. Viscosity of water at various temperatures
Source: 10.1021/j100721a006
Compound 1: water, , InChI=1S/H2O/h1H2

System: water
Property: Viscosity, Pa*s
Temperature, K	Mole fraction of water	Viscosity, Pa*s	uncertainty
273.15	1.0	0.0017916	NG
278.15	1.0	0.0015192	NG
283.15	1.0	0.0013069	NG
288.15	1.0	0.0011382	NG
293.15	1.0	0.001002	NG
298.15	1.0	0.0008903	NG
303.15	1.0	0.0007975	NG
308.15	1.0	0.0007195	NG
313.15	1.0	0.0006532	NG
318.15	1.0	0.0005963	NG
323.15	1.0	0.0005471	NG
328.15	1.0	0.0005042	NG
333.15	1.0	0.0004666	NG
338.15	1.0	0.0004334	NG
343.15	1.0	0.0004039	NG
348.15	1.0	0.0003775	NG
353.15	1.0	0.0003538	NG
358.15	1.0	0.0003323	NG
363.15	1.0	0.0003128	NG
368.15	1.0	0.0002949	NG
373.15	1.0	0.0002783	NG
